[General]
network = SmartDHCPNetwork
sim-time-limit = 100s

*.numClients = 4
*.clients[0].deviceType = "IoT"
*.clients[1].deviceType = "Desktop"
*.clients[2].deviceType = "Admin"
*.clients[3].deviceType = "NewIoT"